testolactone
     RDKit          3D

 46 49  0  0  0  0  0  0  0  0999 V2000
    2.5269    1.1333   -1.2045 C   0  0  0  0  0  0  0  0  0  0  0  0
    2.2641   -0.2768   -0.7767 C   0  0  2  0  0  0  0  0  0  0  0  0
    1.4220   -1.0489   -1.7819 C   0  0  0  0  0  0  0  0  0  0  0  0
    0.0270   -0.4961   -1.8833 C   0  0  0  0  0  0  0  0  0  0  0  0
   -0.6209   -0.4638   -0.5233 C   0  0  1  0  0  0  0  0  0  0  0  0
    0.2345    0.4078    0.3787 C   0  0  1  0  0  0  0  0  0  0  0  0
   -0.2962    0.6442    1.7413 C   0  0  0  0  0  0  0  0  0  0  0  0
   -1.6856    1.2448    1.6562 C   0  0  0  0  0  0  0  0  0  0  0  0
   -2.5326    0.3463    0.7775 C   0  0  0  0  0  0  0  0  0  0  0  0
   -3.6543   -0.1085    1.2445 C   0  0  0  0  0  0  0  0  0  0  0  0
   -4.5435   -0.9933    0.4748 C   0  0  0  0  0  0  0  0  0  0  0  0
   -5.6138   -1.4281    0.9136 O   0  0  0  0  0  0  0  0  0  0  0  0
   -4.0561   -1.3172   -0.8553 C   0  0  0  0  0  0  0  0  0  0  0  0
   -2.9144   -0.8430   -1.3154 C   0  0  0  0  0  0  0  0  0  0  0  0
   -2.0461    0.0343   -0.5685 C   0  0  2  0  0  0  0  0  0  0  0  0
   -2.0914    1.3896   -1.3099 C   0  0  0  0  0  0  0  0  0  0  0  0
    1.5521   -0.3450    0.5309 C   0  0  2  0  0  0  0  0  0  0  0  0
    2.3578    0.1583    1.6940 C   0  0  0  0  0  0  0  0  0  0  0  0
    3.6225   -0.6496    1.7696 C   0  0  0  0  0  0  0  0  0  0  0  0
    4.2347   -0.9039    0.4481 C   0  0  0  0  0  0  0  0  0  0  0  0
    5.4741   -1.0931    0.4016 O   0  0  0  0  0  0  0  0  0  0  0  0
    3.5226   -0.9440   -0.7277 O   0  0  0  0  0  0  0  0  0  0  0  0
    1.7906    1.5594   -1.8835 H   0  0  0  0  0  0  0  0  0  0  0  0
    2.5511    1.8001   -0.2993 H   0  0  0  0  0  0  0  0  0  0  0  0
    3.5260    1.2571   -1.6803 H   0  0  0  0  0  0  0  0  0  0  0  0
    1.4109   -2.1113   -1.4149 H   0  0  0  0  0  0  0  0  0  0  0  0
    1.8892   -1.0332   -2.7772 H   0  0  0  0  0  0  0  0  0  0  0  0
    0.1024    0.5109   -2.3418 H   0  0  0  0  0  0  0  0  0  0  0  0
   -0.5335   -1.2012   -2.5608 H   0  0  0  0  0  0  0  0  0  0  0  0
   -0.5777   -1.4828   -0.1106 H   0  0  0  0  0  0  0  0  0  0  0  0
    0.4642    1.3946   -0.0877 H   0  0  0  0  0  0  0  0  0  0  0  0
   -0.2886   -0.2754    2.3693 H   0  0  0  0  0  0  0  0  0  0  0  0
    0.3391    1.3849    2.2378 H   0  0  0  0  0  0  0  0  0  0  0  0
   -2.0786    1.3521    2.6616 H   0  0  0  0  0  0  0  0  0  0  0  0
   -1.6236    2.2306    1.1747 H   0  0  0  0  0  0  0  0  0  0  0  0
   -4.0090    0.1465    2.2587 H   0  0  0  0  0  0  0  0  0  0  0  0
   -4.6294   -1.9659   -1.5090 H   0  0  0  0  0  0  0  0  0  0  0  0
   -2.6117   -1.1538   -2.3632 H   0  0  0  0  0  0  0  0  0  0  0  0
   -2.0469    1.2650   -2.3877 H   0  0  0  0  0  0  0  0  0  0  0  0
   -1.2460    2.0351   -0.9953 H   0  0  0  0  0  0  0  0  0  0  0  0
   -3.0268    1.9343   -1.0670 H   0  0  0  0  0  0  0  0  0  0  0  0
    1.3053   -1.4092    0.7375 H   0  0  0  0  0  0  0  0  0  0  0  0
    2.6016    1.2208    1.6559 H   0  0  0  0  0  0  0  0  0  0  0  0
    1.7643   -0.0970    2.6207 H   0  0  0  0  0  0  0  0  0  0  0  0
    3.3922   -1.6446    2.2272 H   0  0  0  0  0  0  0  0  0  0  0  0
    4.3511   -0.1641    2.4506 H   0  0  0  0  0  0  0  0  0  0  0  0
  2  1  1  6
  2  3  1  0
  3  4  1  0
  4  5  1  0
  5  6  1  0
  6  7  1  0
  7  8  1  0
  8  9  1  0
  9 10  2  0
 10 11  1  0
 11 12  2  0
 11 13  1  0
 13 14  2  0
 14 15  1  0
 15 16  1  6
  6 17  1  0
 17 18  1  0
 18 19  1  0
 19 20  1  0
 20 21  2  0
 20 22  1  0
 17  2  1  0
 22  2  1  0
 15  5  1  0
 15  9  1  0
  1 23  1  0
  1 24  1  0
  1 25  1  0
  3 26  1  0
  3 27  1  0
  4 28  1  0
  4 29  1  0
  5 30  1  1
  6 31  1  6
  7 32  1  0
  7 33  1  0
  8 34  1  0
  8 35  1  0
 10 36  1  0
 13 37  1  0
 14 38  1  0
 16 39  1  0
 16 40  1  0
 16 41  1  0
 17 42  1  1
 18 43  1  0
 18 44  1  0
 19 45  1  0
 19 46  1  0
M  END
$$$$
