SD000001
     RDKit          3D

 49 50  0  0  0  0  0  0  0  0999 V2000
    4.7789    1.4194    0.0346 C   0  0  0  0  0  0  0  0  0  0  0  0
    3.7381    1.8492   -0.9613 C   0  0  0  0  0  0  0  0  0  0  0  0
    2.3652    1.8877   -0.4309 C   0  0  0  0  0  0  0  0  0  0  0  0
    1.7151    0.6848    0.1006 C   0  0  0  0  0  0  0  0  0  0  0  0
    1.4650   -0.4330   -0.7000 N   0  0  0  0  0  0  0  0  0  0  0  0
    2.5648   -1.2414   -1.0816 C   0  0  0  0  0  0  0  0  0  0  0  0
    3.0839   -2.1001    0.0602 C   0  0  0  0  0  0  0  0  0  0  0  0
    2.0237   -2.6922    0.9124 C   0  0  0  0  0  0  0  0  0  0  0  0
    0.7983   -1.8043    1.1153 C   0  0  0  0  0  0  0  0  0  0  0  0
    0.4095   -1.3230   -0.2616 C   0  0  1  0  0  0  0  0  0  0  0  0
   -0.9465   -0.8415   -0.4165 C   0  0  0  0  0  0  0  0  0  0  0  0
   -1.5369   -1.1356   -1.5249 O   0  0  0  0  0  0  0  0  0  0  0  0
   -1.7150   -0.0813    0.5069 N   0  0  0  0  0  0  0  0  0  0  0  0
   -3.0424    0.3285    0.2469 C   0  0  0  0  0  0  0  0  0  0  0  0
   -4.0993   -0.4642    0.6569 C   0  0  0  0  0  0  0  0  0  0  0  0
   -3.8209   -1.7331    1.3636 C   0  0  0  0  0  0  0  0  0  0  0  0
   -5.3888   -0.0323    0.3837 C   0  0  0  0  0  0  0  0  0  0  0  0
   -5.6122    1.1644   -0.2841 C   0  0  0  0  0  0  0  0  0  0  0  0
   -4.5375    1.9595   -0.6950 C   0  0  0  0  0  0  0  0  0  0  0  0
   -3.2662    1.5070   -0.4110 C   0  0  0  0  0  0  0  0  0  0  0  0
   -2.1201    2.3281   -0.8482 C   0  0  0  0  0  0  0  0  0  0  0  0
    4.3506    0.7106    0.7585 H   0  0  0  0  0  0  0  0  0  0  0  0
    5.5916    0.9073   -0.5091 H   0  0  0  0  0  0  0  0  0  0  0  0
    5.2676    2.2901    0.5474 H   0  0  0  0  0  0  0  0  0  0  0  0
    4.0077    2.9554   -1.1647 H   0  0  0  0  0  0  0  0  0  0  0  0
    3.9221    1.3711   -1.9156 H   0  0  0  0  0  0  0  0  0  0  0  0
    2.3485    2.7254    0.3488 H   0  0  0  0  0  0  0  0  0  0  0  0
    1.6751    2.3267   -1.2275 H   0  0  0  0  0  0  0  0  0  0  0  0
    2.2885    0.4086    1.0480 H   0  0  0  0  0  0  0  0  0  0  0  0
    0.7138    1.0244    0.5238 H   0  0  0  0  0  0  0  0  0  0  0  0
    2.1289   -2.0158   -1.8138 H   0  0  0  0  0  0  0  0  0  0  0  0
    3.3857   -0.8116   -1.6224 H   0  0  0  0  0  0  0  0  0  0  0  0
    3.6196   -2.9628   -0.4414 H   0  0  0  0  0  0  0  0  0  0  0  0
    3.8902   -1.6088    0.6433 H   0  0  0  0  0  0  0  0  0  0  0  0
    1.6524   -3.6206    0.4166 H   0  0  0  0  0  0  0  0  0  0  0  0
    2.4934   -2.9887    1.8784 H   0  0  0  0  0  0  0  0  0  0  0  0
   -0.0159   -2.4237    1.5072 H   0  0  0  0  0  0  0  0  0  0  0  0
    1.0319   -0.9946    1.8198 H   0  0  0  0  0  0  0  0  0  0  0  0
    0.5375   -2.2554   -0.9069 H   0  0  0  0  0  0  0  0  0  0  0  0
   -1.2972    0.1869    1.4192 H   0  0  0  0  0  0  0  0  0  0  0  0
   -3.0968   -2.3747    0.8662 H   0  0  0  0  0  0  0  0  0  0  0  0
   -4.7904   -2.2472    1.5808 H   0  0  0  0  0  0  0  0  0  0  0  0
   -3.4412   -1.4422    2.3868 H   0  0  0  0  0  0  0  0  0  0  0  0
   -6.2469   -0.6167    0.6828 H   0  0  0  0  0  0  0  0  0  0  0  0
   -6.5987    1.5424   -0.5185 H   0  0  0  0  0  0  0  0  0  0  0  0
   -4.7059    2.8877   -1.2116 H   0  0  0  0  0  0  0  0  0  0  0  0
   -2.3057    3.3570   -0.4239 H   0  0  0  0  0  0  0  0  0  0  0  0
   -2.1094    2.4003   -1.9768 H   0  0  0  0  0  0  0  0  0  0  0  0
   -1.1538    2.0223   -0.4616 H   0  0  0  0  0  0  0  0  0  0  0  0
  1  2  1  0
  2  3  1  0
  3  4  1  0
  4  5  1  0
  5  6  1  0
  6  7  1  0
  7  8  1  0
  8  9  1  0
  9 10  1  0
 10 11  1  0
 11 12  2  0
 11 13  1  0
 13 14  1  0
 14 15  2  0
 15 16  1  0
 15 17  1  0
 17 18  2  0
 18 19  1  0
 19 20  2  0
 20 21  1  0
 10  5  1  0
 20 14  1  0
  1 22  1  0
  1 23  1  0
  1 24  1  0
  2 25  1  0
  2 26  1  0
  3 27  1  0
  3 28  1  0
  4 29  1  0
  4 30  1  0
  6 31  1  0
  6 32  1  0
  7 33  1  0
  7 34  1  0
  8 35  1  0
  8 36  1  0
  9 37  1  0
  9 38  1  0
 10 39  1  6
 13 40  1  0
 16 41  1  0
 16 42  1  0
 16 43  1  0
 17 44  1  0
 18 45  1  0
 19 46  1  0
 21 47  1  0
 21 48  1  0
 21 49  1  0
M  END
$$$$
