SD000001
     RDKit          3D

 49 50  0  0  0  0  0  0  0  0999 V2000
    5.1968    2.3263    1.6545 C   0  0  0  0  0  0  0  0  0  0  0  0
    4.0230    2.0449    0.7460 C   0  0  0  0  0  0  0  0  0  0  0  0
    3.4456    0.6597    1.0195 C   0  0  0  0  0  0  0  0  0  0  0  0
    2.2919    0.4606    0.0783 C   0  0  0  0  0  0  0  0  0  0  0  0
    1.6526   -0.8172    0.2248 N   0  0  0  0  0  0  0  0  0  0  0  0
    2.5590   -1.8438   -0.2399 C   0  0  0  0  0  0  0  0  0  0  0  0
    2.1663   -2.3008   -1.6528 C   0  0  0  0  0  0  0  0  0  0  0  0
    0.8323   -3.0012   -1.6707 C   0  0  0  0  0  0  0  0  0  0  0  0
    0.0143   -2.4071   -0.5410 C   0  0  0  0  0  0  0  0  0  0  0  0
    0.4316   -0.9281   -0.4840 C   0  0  1  0  0  0  0  0  0  0  0  0
   -0.7042   -0.1942    0.0616 C   0  0  0  0  0  0  0  0  0  0  0  0
   -0.6085    0.5682    1.0552 O   0  0  0  0  0  0  0  0  0  0  0  0
   -1.9732   -0.3562   -0.5636 N   0  0  0  0  0  0  0  0  0  0  0  0
   -3.1216    0.3296   -0.0779 C   0  0  0  0  0  0  0  0  0  0  0  0
   -3.4152    1.5511   -0.6348 C   0  0  0  0  0  0  0  0  0  0  0  0
   -2.5578    2.1092   -1.7186 C   0  0  0  0  0  0  0  0  0  0  0  0
   -4.5140    2.3010   -0.2191 C   0  0  0  0  0  0  0  0  0  0  0  0
   -5.3012    1.7484    0.7917 C   0  0  0  0  0  0  0  0  0  0  0  0
   -5.0050    0.5165    1.3529 C   0  0  0  0  0  0  0  0  0  0  0  0
   -3.9123   -0.2017    0.9215 C   0  0  0  0  0  0  0  0  0  0  0  0
   -3.5472   -1.5328    1.4923 C   0  0  0  0  0  0  0  0  0  0  0  0
    5.2451    3.4141    1.8060 H   0  0  0  0  0  0  0  0  0  0  0  0
    6.1542    2.0139    1.1879 H   0  0  0  0  0  0  0  0  0  0  0  0
    5.0587    1.8591    2.6616 H   0  0  0  0  0  0  0  0  0  0  0  0
    4.3949    2.1223   -0.2929 H   0  0  0  0  0  0  0  0  0  0  0  0
    3.2677    2.8344    0.8925 H   0  0  0  0  0  0  0  0  0  0  0  0
    3.1169    0.6890    2.0840 H   0  0  0  0  0  0  0  0  0  0  0  0
    4.2488   -0.0876    0.9325 H   0  0  0  0  0  0  0  0  0  0  0  0
    1.5933    1.3108    0.2258 H   0  0  0  0  0  0  0  0  0  0  0  0
    2.7064    0.6014   -0.9600 H   0  0  0  0  0  0  0  0  0  0  0  0
    3.6015   -1.5394   -0.2857 H   0  0  0  0  0  0  0  0  0  0  0  0
    2.5084   -2.7618    0.3774 H   0  0  0  0  0  0  0  0  0  0  0  0
    2.9342   -3.0366   -1.9644 H   0  0  0  0  0  0  0  0  0  0  0  0
    2.2295   -1.4595   -2.3623 H   0  0  0  0  0  0  0  0  0  0  0  0
    0.9083   -4.1048   -1.6127 H   0  0  0  0  0  0  0  0  0  0  0  0
    0.2867   -2.7063   -2.6095 H   0  0  0  0  0  0  0  0  0  0  0  0
   -1.0592   -2.5353   -0.6663 H   0  0  0  0  0  0  0  0  0  0  0  0
    0.2888   -2.8864    0.4424 H   0  0  0  0  0  0  0  0  0  0  0  0
    0.5995   -0.5794   -1.5317 H   0  0  0  0  0  0  0  0  0  0  0  0
   -2.1355   -0.9692   -1.3909 H   0  0  0  0  0  0  0  0  0  0  0  0
   -1.4918    1.8600   -1.6089 H   0  0  0  0  0  0  0  0  0  0  0  0
   -2.6580    3.1970   -1.7824 H   0  0  0  0  0  0  0  0  0  0  0  0
   -2.9017    1.6224   -2.6655 H   0  0  0  0  0  0  0  0  0  0  0  0
   -4.7613    3.2643   -0.6462 H   0  0  0  0  0  0  0  0  0  0  0  0
   -6.1610    2.2859    1.1472 H   0  0  0  0  0  0  0  0  0  0  0  0
   -5.6440    0.1235    2.1349 H   0  0  0  0  0  0  0  0  0  0  0  0
   -3.4102   -2.2241    0.6576 H   0  0  0  0  0  0  0  0  0  0  0  0
   -4.3095   -1.8700    2.2063 H   0  0  0  0  0  0  0  0  0  0  0  0
   -2.5639   -1.4703    2.0274 H   0  0  0  0  0  0  0  0  0  0  0  0
  1  2  1  0
  2  3  1  0
  3  4  1  0
  4  5  1  0
  5  6  1  0
  6  7  1  0
  7  8  1  0
  8  9  1  0
  9 10  1  0
 10 11  1  0
 11 12  2  0
 11 13  1  0
 13 14  1  0
 14 15  2  0
 15 16  1  0
 15 17  1  0
 17 18  2  0
 18 19  1  0
 19 20  2  0
 20 21  1  0
 10  5  1  0
 20 14  1  0
  1 22  1  0
  1 23  1  0
  1 24  1  0
  2 25  1  0
  2 26  1  0
  3 27  1  0
  3 28  1  0
  4 29  1  0
  4 30  1  0
  6 31  1  0
  6 32  1  0
  7 33  1  0
  7 34  1  0
  8 35  1  0
  8 36  1  0
  9 37  1  0
  9 38  1  0
 10 39  1  6
 13 40  1  0
 16 41  1  0
 16 42  1  0
 16 43  1  0
 17 44  1  0
 18 45  1  0
 19 46  1  0
 21 47  1  0
 21 48  1  0
 21 49  1  0
M  END
$$$$
