SD000002
     RDKit          3D

 64 66  0  0  0  0  0  0  0  0999 V2000
   -6.5931   -0.3205   -2.1351 C   0  0  0  0  0  0  0  0  0  0  0  0
   -5.4060    0.1756   -1.5513 O   0  0  0  0  0  0  0  0  0  0  0  0
   -5.3932    1.2050   -0.6154 C   0  0  0  0  0  0  0  0  0  0  0  0
   -6.5222    1.6657   -0.3242 O   0  0  0  0  0  0  0  0  0  0  0  0
   -4.1395    1.6693   -0.0551 C   0  0  0  0  0  0  0  0  0  0  0  0
   -4.1400    2.6501    0.8210 C   0  0  0  0  0  0  0  0  0  0  0  0
   -5.3771    3.3221    1.2843 C   0  0  0  0  0  0  0  0  0  0  0  0
   -2.8947    3.1536    1.3473 N   0  0  0  0  0  0  0  0  0  0  0  0
   -1.6947    2.5792    0.9078 C   0  0  0  0  0  0  0  0  0  0  0  0
   -0.4278    3.1507    1.4872 C   0  0  0  0  0  0  0  0  0  0  0  0
   -1.6500    1.6025    0.0455 C   0  0  0  0  0  0  0  0  0  0  0  0
   -0.3469    1.0299   -0.3979 C   0  0  0  0  0  0  0  0  0  0  0  0
   -0.3163    0.0861   -1.2419 O   0  0  0  0  0  0  0  0  0  0  0  0
    0.8625    1.4645    0.0560 O   0  0  0  0  0  0  0  0  0  0  0  0
    2.1340    1.0066   -0.2832 C   0  0  0  0  0  0  0  0  0  0  0  0
    2.4121   -0.4270    0.0372 C   0  0  0  0  0  0  0  0  0  0  0  0
    3.7175   -0.8661   -0.3213 N   0  0  0  0  0  0  0  0  0  0  0  0
    3.9055   -2.2389    0.0211 C   0  0  0  0  0  0  0  0  0  0  0  0
    4.7870    0.0136    0.0111 C   0  0  0  0  0  0  0  0  0  0  0  0
    6.0966   -0.5547   -0.3953 C   0  0  0  0  0  0  0  0  0  0  0  0
    6.8469   -1.3504    0.4439 C   0  0  0  0  0  0  0  0  0  0  0  0
    8.0705   -1.8782    0.0561 C   0  0  0  0  0  0  0  0  0  0  0  0
    8.5569   -1.6030   -1.2048 C   0  0  0  0  0  0  0  0  0  0  0  0
    7.8296   -0.8147   -2.0569 C   0  0  0  0  0  0  0  0  0  0  0  0
    6.5968   -0.2888   -1.6526 C   0  0  0  0  0  0  0  0  0  0  0  0
   -2.8986    0.9893   -0.4784 C   0  0  1  0  0  0  0  0  0  0  0  0
   -2.9472   -0.4636   -0.0959 C   0  0  0  0  0  0  0  0  0  0  0  0
   -2.9091   -1.4277   -1.0681 C   0  0  0  0  0  0  0  0  0  0  0  0
   -2.9532   -2.7663   -0.7350 C   0  0  0  0  0  0  0  0  0  0  0  0
   -3.0366   -3.1145    0.5989 C   0  0  0  0  0  0  0  0  0  0  0  0
   -3.0769   -2.1880    1.5973 C   0  0  0  0  0  0  0  0  0  0  0  0
   -3.1626   -2.5768    2.9567 N   0  0  0  0  0  0  0  0  0  0  0  0
   -3.2013   -1.7500    3.8912 O   0  0  0  0  0  0  0  0  0  0  0  0
   -3.2049   -3.9125    3.2606 O   0  0  0  0  0  0  0  0  0  0  0  0
   -3.0303   -0.8552    1.2189 C   0  0  0  0  0  0  0  0  0  0  0  0
   -7.4929   -0.0746   -1.5484 H   0  0  0  0  0  0  0  0  0  0  0  0
   -6.4504   -1.4056   -2.2937 H   0  0  0  0  0  0  0  0  0  0  0  0
   -6.6827    0.1475   -3.1394 H   0  0  0  0  0  0  0  0  0  0  0  0
   -5.8411    3.8468    0.4268 H   0  0  0  0  0  0  0  0  0  0  0  0
   -5.1291    4.1295    2.0149 H   0  0  0  0  0  0  0  0  0  0  0  0
   -6.0772    2.6464    1.8233 H   0  0  0  0  0  0  0  0  0  0  0  0
   -2.9089    3.9428    2.0517 H   0  0  0  0  0  0  0  0  0  0  0  0
   -0.7207    3.9705    2.1981 H   0  0  0  0  0  0  0  0  0  0  0  0
    0.1225    2.4290    2.1057 H   0  0  0  0  0  0  0  0  0  0  0  0
    0.1721    3.6484    0.7170 H   0  0  0  0  0  0  0  0  0  0  0  0
    2.8525    1.7004    0.2480 H   0  0  0  0  0  0  0  0  0  0  0  0
    2.3784    1.1514   -1.3638 H   0  0  0  0  0  0  0  0  0  0  0  0
    2.2749   -0.5202    1.1562 H   0  0  0  0  0  0  0  0  0  0  0  0
    1.6330   -1.0787   -0.3866 H   0  0  0  0  0  0  0  0  0  0  0  0
    2.9599   -2.7761   -0.1672 H   0  0  0  0  0  0  0  0  0  0  0  0
    4.6916   -2.7483   -0.5694 H   0  0  0  0  0  0  0  0  0  0  0  0
    4.0928   -2.2983    1.1116 H   0  0  0  0  0  0  0  0  0  0  0  0
    4.8568    0.2280    1.0984 H   0  0  0  0  0  0  0  0  0  0  0  0
    4.5942    0.9862   -0.5080 H   0  0  0  0  0  0  0  0  0  0  0  0
    6.4869   -1.5803    1.4370 H   0  0  0  0  0  0  0  0  0  0  0  0
    8.5970   -2.4879    0.7621 H   0  0  0  0  0  0  0  0  0  0  0  0
    9.5193   -2.0322   -1.4776 H   0  0  0  0  0  0  0  0  0  0  0  0
    8.2234   -0.6114   -3.0329 H   0  0  0  0  0  0  0  0  0  0  0  0
    6.0896    0.3222   -2.3868 H   0  0  0  0  0  0  0  0  0  0  0  0
   -2.8417    1.0633   -1.5836 H   0  0  0  0  0  0  0  0  0  0  0  0
   -2.8429   -1.1684   -2.1329 H   0  0  0  0  0  0  0  0  0  0  0  0
   -2.9212   -3.4958   -1.5259 H   0  0  0  0  0  0  0  0  0  0  0  0
   -3.0683   -4.1856    0.8039 H   0  0  0  0  0  0  0  0  0  0  0  0
   -3.0618   -0.1158    2.0036 H   0  0  0  0  0  0  0  0  0  0  0  0
  1  2  1  0
  2  3  1  0
  3  4  2  0
  3  5  1  0
  5  6  2  0
  6  7  1  0
  6  8  1  0
  8  9  1  0
  9 10  1  0
  9 11  2  0
 11 12  1  0
 12 13  2  0
 12 14  1  0
 14 15  1  0
 15 16  1  0
 16 17  1  0
 17 18  1  0
 17 19  1  0
 19 20  1  0
 20 21  2  0
 21 22  1  0
 22 23  2  0
 23 24  1  0
 24 25  2  0
 11 26  1  0
 26 27  1  0
 27 28  2  0
 28 29  1  0
 29 30  2  0
 30 31  1  0
 31 32  1  0
 32 33  2  0
 32 34  1  0
 31 35  2  0
 26  5  1  0
 35 27  1  0
 25 20  1  0
  1 36  1  0
  1 37  1  0
  1 38  1  0
  7 39  1  0
  7 40  1  0
  7 41  1  0
  8 42  1  0
 10 43  1  0
 10 44  1  0
 10 45  1  0
 15 46  1  0
 15 47  1  0
 16 48  1  0
 16 49  1  0
 18 50  1  0
 18 51  1  0
 18 52  1  0
 19 53  1  0
 19 54  1  0
 21 55  1  0
 22 56  1  0
 23 57  1  0
 24 58  1  0
 25 59  1  0
 26 60  1  6
 28 61  1  0
 29 62  1  0
 30 63  1  0
 35 64  1  0
M  CHG  2  32   1  34  -1
M  END
$$$$
