SD000002
     RDKit          3D

 64 66  0  0  0  0  0  0  0  0999 V2000
   -5.5492   -0.8306    2.4129 C   0  0  0  0  0  0  0  0  0  0  0  0
   -4.3912   -0.8864    1.6031 O   0  0  0  0  0  0  0  0  0  0  0  0
   -4.2122   -1.8929    0.6791 C   0  0  0  0  0  0  0  0  0  0  0  0
   -5.0856   -2.7476    0.5717 O   0  0  0  0  0  0  0  0  0  0  0  0
   -2.9857   -1.9410   -0.1671 C   0  0  0  0  0  0  0  0  0  0  0  0
   -2.8090   -2.9031   -1.0397 C   0  0  0  0  0  0  0  0  0  0  0  0
   -3.8588   -3.9788   -1.2015 C   0  0  0  0  0  0  0  0  0  0  0  0
   -1.6216   -2.9819   -1.8102 N   0  0  0  0  0  0  0  0  0  0  0  0
   -0.5982   -1.9902   -1.6298 C   0  0  0  0  0  0  0  0  0  0  0  0
    0.6493   -2.1256   -2.4714 C   0  0  0  0  0  0  0  0  0  0  0  0
   -0.7656   -1.0275   -0.7718 C   0  0  0  0  0  0  0  0  0  0  0  0
    0.3298   -0.0211   -0.6090 C   0  0  0  0  0  0  0  0  0  0  0  0
    1.3843   -0.0680   -1.2657 O   0  0  0  0  0  0  0  0  0  0  0  0
    0.1918    1.0030    0.2941 O   0  0  0  0  0  0  0  0  0  0  0  0
    1.1374    1.9931    0.5466 C   0  0  0  0  0  0  0  0  0  0  0  0
    2.3839    1.4221    1.1140 C   0  0  0  0  0  0  0  0  0  0  0  0
    3.3966    2.4167    1.3951 N   0  0  0  0  0  0  0  0  0  0  0  0
    3.9410    3.0181    0.2097 C   0  0  0  0  0  0  0  0  0  0  0  0
    4.3945    1.8746    2.2738 C   0  0  0  0  0  0  0  0  0  0  0  0
    5.1202    0.7194    1.7593 C   0  0  0  0  0  0  0  0  0  0  0  0
    6.2754    0.9104    1.0413 C   0  0  0  0  0  0  0  0  0  0  0  0
    7.0173   -0.1363    0.5221 C   0  0  0  0  0  0  0  0  0  0  0  0
    6.5724   -1.4290    0.7381 C   0  0  0  0  0  0  0  0  0  0  0  0
    5.4198   -1.6238    1.4543 C   0  0  0  0  0  0  0  0  0  0  0  0
    4.6923   -0.5706    1.9647 C   0  0  0  0  0  0  0  0  0  0  0  0
   -1.9993   -0.8557   -0.0107 C   0  0  1  0  0  0  0  0  0  0  0  0
   -2.7048    0.4090   -0.4286 C   0  0  0  0  0  0  0  0  0  0  0  0
   -2.8120    1.4221    0.4880 C   0  0  0  0  0  0  0  0  0  0  0  0
   -3.4516    2.6232    0.1713 C   0  0  0  0  0  0  0  0  0  0  0  0
   -3.9723    2.7736   -1.0739 C   0  0  0  0  0  0  0  0  0  0  0  0
   -3.8560    1.7364   -1.9940 C   0  0  0  0  0  0  0  0  0  0  0  0
   -4.4002    1.9024   -3.2856 N   0  0  0  0  0  0  0  0  0  0  0  0
   -4.3362    1.0239   -4.1564 O   0  0  0  0  0  0  0  0  0  0  0  0
   -5.0398    3.0739   -3.6404 O   0  0  0  0  0  0  0  0  0  0  0  0
   -3.2286    0.5452   -1.6994 C   0  0  0  0  0  0  0  0  0  0  0  0
   -5.4518    0.0812    3.0427 H   0  0  0  0  0  0  0  0  0  0  0  0
   -5.6655   -1.6871    3.0803 H   0  0  0  0  0  0  0  0  0  0  0  0
   -6.4361   -0.6585    1.7490 H   0  0  0  0  0  0  0  0  0  0  0  0
   -3.4706   -4.6442   -2.0334 H   0  0  0  0  0  0  0  0  0  0  0  0
   -4.7652   -3.5147   -1.6251 H   0  0  0  0  0  0  0  0  0  0  0  0
   -3.9753   -4.6089   -0.3276 H   0  0  0  0  0  0  0  0  0  0  0  0
   -1.4944   -3.7412   -2.4913 H   0  0  0  0  0  0  0  0  0  0  0  0
    0.7454   -1.2848   -3.1729 H   0  0  0  0  0  0  0  0  0  0  0  0
    1.5327   -2.3354   -1.8613 H   0  0  0  0  0  0  0  0  0  0  0  0
    0.5223   -3.0546   -3.1093 H   0  0  0  0  0  0  0  0  0  0  0  0
    1.2978    2.5296   -0.4213 H   0  0  0  0  0  0  0  0  0  0  0  0
    0.7363    2.7847    1.2324 H   0  0  0  0  0  0  0  0  0  0  0  0
    2.7396    0.5789    0.5464 H   0  0  0  0  0  0  0  0  0  0  0  0
    2.1040    1.0081    2.1305 H   0  0  0  0  0  0  0  0  0  0  0  0
    3.1083    3.4665   -0.3694 H   0  0  0  0  0  0  0  0  0  0  0  0
    4.5802    3.8663    0.5311 H   0  0  0  0  0  0  0  0  0  0  0  0
    4.4774    2.3343   -0.4488 H   0  0  0  0  0  0  0  0  0  0  0  0
    3.9054    1.5676    3.2314 H   0  0  0  0  0  0  0  0  0  0  0  0
    5.0837    2.7149    2.5414 H   0  0  0  0  0  0  0  0  0  0  0  0
    6.6810    1.9136    0.8355 H   0  0  0  0  0  0  0  0  0  0  0  0
    7.9302    0.0607   -0.0428 H   0  0  0  0  0  0  0  0  0  0  0  0
    7.1121   -2.2768    0.3557 H   0  0  0  0  0  0  0  0  0  0  0  0
    5.0530   -2.6413    1.6349 H   0  0  0  0  0  0  0  0  0  0  0  0
    3.7911   -0.8089    2.5202 H   0  0  0  0  0  0  0  0  0  0  0  0
   -1.7979   -0.7520    1.0979 H   0  0  0  0  0  0  0  0  0  0  0  0
   -2.4187    1.3666    1.5002 H   0  0  0  0  0  0  0  0  0  0  0  0
   -3.5359    3.4180    0.8899 H   0  0  0  0  0  0  0  0  0  0  0  0
   -4.4648    3.7043   -1.3107 H   0  0  0  0  0  0  0  0  0  0  0  0
   -3.1521   -0.2439   -2.4317 H   0  0  0  0  0  0  0  0  0  0  0  0
  1  2  1  0
  2  3  1  0
  3  4  2  0
  3  5  1  0
  5  6  2  0
  6  7  1  0
  6  8  1  0
  8  9  1  0
  9 10  1  0
  9 11  2  0
 11 12  1  0
 12 13  2  0
 12 14  1  0
 14 15  1  0
 15 16  1  0
 16 17  1  0
 17 18  1  0
 17 19  1  0
 19 20  1  0
 20 21  2  0
 21 22  1  0
 22 23  2  0
 23 24  1  0
 24 25  2  0
 11 26  1  0
 26 27  1  0
 27 28  2  0
 28 29  1  0
 29 30  2  0
 30 31  1  0
 31 32  1  0
 32 33  2  0
 32 34  1  0
 31 35  2  0
 26  5  1  0
 35 27  1  0
 25 20  1  0
  1 36  1  0
  1 37  1  0
  1 38  1  0
  7 39  1  0
  7 40  1  0
  7 41  1  0
  8 42  1  0
 10 43  1  0
 10 44  1  0
 10 45  1  0
 15 46  1  0
 15 47  1  0
 16 48  1  0
 16 49  1  0
 18 50  1  0
 18 51  1  0
 18 52  1  0
 19 53  1  0
 19 54  1  0
 21 55  1  0
 22 56  1  0
 23 57  1  0
 24 58  1  0
 25 59  1  0
 26 60  1  1
 28 61  1  0
 29 62  1  0
 30 63  1  0
 35 64  1  0
M  CHG  2  32   1  34  -1
M  END
$$$$
