SD000002
     RDKit          3D

 64 66  0  0  0  0  0  0  0  0999 V2000
   -6.6304   -0.3176    0.8606 C   0  0  0  0  0  0  0  0  0  0  0  0
   -5.3428    0.0742    0.4190 O   0  0  0  0  0  0  0  0  0  0  0  0
   -4.9873    1.3739    0.1645 C   0  0  0  0  0  0  0  0  0  0  0  0
   -5.8447    2.2472    0.3307 O   0  0  0  0  0  0  0  0  0  0  0  0
   -3.6321    1.7643   -0.2976 C   0  0  0  0  0  0  0  0  0  0  0  0
   -3.3428    3.0225   -0.5367 C   0  0  0  0  0  0  0  0  0  0  0  0
   -4.3811    4.0880   -0.3408 C   0  0  0  0  0  0  0  0  0  0  0  0
   -2.0557    3.4112   -1.0268 N   0  0  0  0  0  0  0  0  0  0  0  0
   -1.0827    2.4025   -1.2527 C   0  0  0  0  0  0  0  0  0  0  0  0
    0.2484    2.8454   -1.7717 C   0  0  0  0  0  0  0  0  0  0  0  0
   -1.3261    1.1349   -1.0214 C   0  0  0  0  0  0  0  0  0  0  0  0
   -0.3060    0.0851   -1.2671 C   0  0  0  0  0  0  0  0  0  0  0  0
   -0.5485   -1.1252   -1.0483 O   0  0  0  0  0  0  0  0  0  0  0  0
    0.9442    0.3813   -1.7420 O   0  0  0  0  0  0  0  0  0  0  0  0
    1.9201   -0.5878   -1.9733 C   0  0  0  0  0  0  0  0  0  0  0  0
    2.3937   -1.3574   -0.7896 C   0  0  0  0  0  0  0  0  0  0  0  0
    3.3930   -2.2980   -1.2277 N   0  0  0  0  0  0  0  0  0  0  0  0
    2.8698   -3.3375   -2.0514 C   0  0  0  0  0  0  0  0  0  0  0  0
    4.6262   -1.7308   -1.6632 C   0  0  0  0  0  0  0  0  0  0  0  0
    5.3478   -0.9791   -0.6244 C   0  0  0  0  0  0  0  0  0  0  0  0
    6.2427   -1.6257    0.1954 C   0  0  0  0  0  0  0  0  0  0  0  0
    6.9421   -0.9726    1.1717 C   0  0  0  0  0  0  0  0  0  0  0  0
    6.7560    0.3786    1.3535 C   0  0  0  0  0  0  0  0  0  0  0  0
    5.8531    1.0423    0.5292 C   0  0  0  0  0  0  0  0  0  0  0  0
    5.1597    0.3653   -0.4468 C   0  0  0  0  0  0  0  0  0  0  0  0
   -2.6040    0.7105   -0.4548 C   0  0  1  0  0  0  0  0  0  0  0  0
   -2.4130   -0.0312    0.8339 C   0  0  0  0  0  0  0  0  0  0  0  0
   -1.8725    0.5776    1.9379 C   0  0  0  0  0  0  0  0  0  0  0  0
   -1.7027   -0.1271    3.1194 C   0  0  0  0  0  0  0  0  0  0  0  0
   -2.0746   -1.4542    3.2055 C   0  0  0  0  0  0  0  0  0  0  0  0
   -2.6230   -2.1005    2.1122 C   0  0  0  0  0  0  0  0  0  0  0  0
   -3.0218   -3.4565    2.1493 N   0  0  0  0  0  0  0  0  0  0  0  0
   -2.8851   -4.1139    3.1870 O   0  0  0  0  0  0  0  0  0  0  0  0
   -3.5577   -4.0299    1.0336 O   0  0  0  0  0  0  0  0  0  0  0  0
   -2.7696   -1.3499    0.9591 C   0  0  0  0  0  0  0  0  0  0  0  0
   -7.3883   -0.3349    0.0643 H   0  0  0  0  0  0  0  0  0  0  0  0
   -6.9533    0.4979    1.5753 H   0  0  0  0  0  0  0  0  0  0  0  0
   -6.6339   -1.2611    1.4206 H   0  0  0  0  0  0  0  0  0  0  0  0
   -5.2113    4.0357   -1.0483 H   0  0  0  0  0  0  0  0  0  0  0  0
   -4.6035    4.1939    0.7152 H   0  0  0  0  0  0  0  0  0  0  0  0
   -3.8742    5.0781   -0.6100 H   0  0  0  0  0  0  0  0  0  0  0  0
   -1.8499    4.4321   -1.2117 H   0  0  0  0  0  0  0  0  0  0  0  0
    0.4439    2.4907   -2.7933 H   0  0  0  0  0  0  0  0  0  0  0  0
    1.0717    2.6845   -1.0470 H   0  0  0  0  0  0  0  0  0  0  0  0
    0.2294    3.9755   -1.8867 H   0  0  0  0  0  0  0  0  0  0  0  0
    1.6044   -1.3418   -2.7375 H   0  0  0  0  0  0  0  0  0  0  0  0
    2.7697   -0.0398   -2.4874 H   0  0  0  0  0  0  0  0  0  0  0  0
    1.5757   -1.9488   -0.3595 H   0  0  0  0  0  0  0  0  0  0  0  0
    2.7770   -0.7274    0.0388 H   0  0  0  0  0  0  0  0  0  0  0  0
    1.7530   -3.3440   -2.0067 H   0  0  0  0  0  0  0  0  0  0  0  0
    3.1838   -4.3207   -1.6162 H   0  0  0  0  0  0  0  0  0  0  0  0
    3.1897   -3.1987   -3.0938 H   0  0  0  0  0  0  0  0  0  0  0  0
    4.5257   -1.0642   -2.5457 H   0  0  0  0  0  0  0  0  0  0  0  0
    5.2451   -2.5956   -2.0487 H   0  0  0  0  0  0  0  0  0  0  0  0
    6.3777   -2.6884    0.0400 H   0  0  0  0  0  0  0  0  0  0  0  0
    7.6272   -1.4960    1.7902 H   0  0  0  0  0  0  0  0  0  0  0  0
    7.3154    0.9121    2.1380 H   0  0  0  0  0  0  0  0  0  0  0  0
    5.7147    2.1103    0.6818 H   0  0  0  0  0  0  0  0  0  0  0  0
    4.4784    0.9566   -1.0454 H   0  0  0  0  0  0  0  0  0  0  0  0
   -3.0480   -0.0240   -1.1919 H   0  0  0  0  0  0  0  0  0  0  0  0
   -1.5814    1.6318    1.8569 H   0  0  0  0  0  0  0  0  0  0  0  0
   -1.2743    0.3812    3.9693 H   0  0  0  0  0  0  0  0  0  0  0  0
   -1.9499   -2.0257    4.1212 H   0  0  0  0  0  0  0  0  0  0  0  0
   -3.2074   -1.8798    0.0998 H   0  0  0  0  0  0  0  0  0  0  0  0
  1  2  1  0
  2  3  1  0
  3  4  2  0
  3  5  1  0
  5  6  2  0
  6  7  1  0
  6  8  1  0
  8  9  1  0
  9 10  1  0
  9 11  2  0
 11 12  1  0
 12 13  2  0
 12 14  1  0
 14 15  1  0
 15 16  1  0
 16 17  1  0
 17 18  1  0
 17 19  1  0
 19 20  1  0
 20 21  2  0
 21 22  1  0
 22 23  2  0
 23 24  1  0
 24 25  2  0
 11 26  1  0
 26 27  1  0
 27 28  2  0
 28 29  1  0
 29 30  2  0
 30 31  1  0
 31 32  1  0
 32 33  2  0
 32 34  1  0
 31 35  2  0
 26  5  1  0
 35 27  1  0
 25 20  1  0
  1 36  1  0
  1 37  1  0
  1 38  1  0
  7 39  1  0
  7 40  1  0
  7 41  1  0
  8 42  1  0
 10 43  1  0
 10 44  1  0
 10 45  1  0
 15 46  1  0
 15 47  1  0
 16 48  1  0
 16 49  1  0
 18 50  1  0
 18 51  1  0
 18 52  1  0
 19 53  1  0
 19 54  1  0
 21 55  1  0
 22 56  1  0
 23 57  1  0
 24 58  1  0
 25 59  1  0
 26 60  1  6
 28 61  1  0
 29 62  1  0
 30 63  1  0
 35 64  1  0
M  CHG  2  32   1  34  -1
M  END
$$$$
